LAMMPS (29 Sep 2021 - Update 2)
# ethanol at a nacl surface
# variables
variable pre equal 1 # desired pressure (Atm)
variable tem equal 300 # desired temperature (K)
variable k1 equal 0.5 # spring constant
variable k2 equal 5 # spring constant
# main parameters
units real # style of units (A, fs, Kcal/mol)
atom_style full # molecular + charge
bond_style harmonic
angle_style harmonic
dihedral_style harmonic
boundary p p p # periodic boundary conditions
pair_style lj/cut/coul/long 10 # cut-off 1 nm
kspace_style pppm 1.0e-4
pair_modify mix arithmetic tail yes # eij = sqrt(ei*ej), dij = 0.5*(di+dj)
# import positions and parameters
read_data eq.data
Reading data file ...
  orthogonal box = (-13.809794 -13.794338 -25.680000) to (13.809794 13.794338 25.680000)
  reading atoms ...
  490 atoms
  reading velocities ...
  490 velocities
  scanning bonds ...
  scanning angles ...
  scanning dihedrals ...
  reading bonds ...
  80 bonds
  reading angles ...
  130 angles
  reading dihedrals ...
  120 dihedrals
Finding 1-2 1-3 1-4 neighbors ...
     4 = max # of 1-2 neighbors
     4 = max # of 1-3 neighbors
     7 = max # of 1-4 neighbors
     8 = max # of special neighbors
include PARM.lammps
# mass parameters
mass 1 22.99000
mass 2 35.45000
mass 3 12.011
mass 4 1.008
mass 5 1.008
mass 6 12.011
mass 7 15.9994
# pair coeffs
pair_coeff 1 1 0.0552 2.31
pair_coeff 2 2 0.1004 4.3
pair_coeff 3 3 0.0663 3.5812
pair_coeff 4 4 0.0281 2.3734
pair_coeff 5 5 0.0000 0.0000
pair_coeff 6 6 0.2450 2.8114
pair_coeff 7 7 0.1195 3.1000
# bond coeffs
bond_coeff 1 349.274 1.0900
bond_coeff 2 399.792 1.4300
bond_coeff 3 299.844 1.5200
bond_coeff 4 349.928 1.1000
bond_coeff 5 442.161 0.9720
# angle coeffs
angle_coeff 1 47.694 109.500
angle_coeff 2 55.127 109.500
angle_coeff 3 55.114 111.000
angle_coeff 4 52.477 107.570
angle_coeff 5 47.502 108.530
angle_coeff 6 54.993 110.300
# dihedral coeffs
dihedral_coeff 1 0.30115 1 3
dihedral_coeff 2 1.415 1 3
dihedral_coeff 3 0.0 1 1
# groups # descriptions
group nacl type 1 2 # nacl wall
400 atoms in group nacl
group eth type 3 4 5 6 7 # ethanol molecules
90 atoms in group eth
group oxy type 7 # ethanol molecules
10 atoms in group oxy
group mol2 molecule 2
9 atoms in group mol2
group topull intersect mol2 oxy
1 atoms in group topull
# dynamics
timestep 1 # (fs)
fix mynve all nve
fix mylgv all langevin 300 300 20 1530917
variable zini equal xcm(nacl,z)
fix mytth1 nacl spring tether 5 NULL NULL 25.6800263840784 0
# output
thermo 1000
dump dp1 all atom 50000 dump.lammpstrj
# run
variable zave equal xcm(topull,z)
variable cpt loop 24
label loop
variable zdes equal -20+0.5*(1-1)
fix mytth2 topull spring tether 0.5 0 0 -20 0
run 50000
PPPM initialization ...
  G vector (1/distance) = 0.26364888
  grid = 15 15 24
  stencil order = 5
  estimated absolute RMS force accuracy = 0.026549759
  estimated relative force accuracy = 7.9953811e-05
  3d grid and FFT values/proc = 8228 2700
  update every 1 steps, delay 10 steps, check yes
Step Temp E_pair E_mol TotEng Press
0    308.58754   -38623.062    61.644139   -38111.615   -175.92456
Averages over the last 26 of 51 rows, steps 25000 to 50000:
Temp E_pair E_mol TotEng Press
299.461 -38667.9 67.7387 -38163.7 -426.647
Loop time of 21.701 on 2 procs for 50000 steps with 490 atoms

fix myat1 all ave/time 10 200 2000 v_zave v_zdes file position.1.dat
run 500000
PPPM initialization ...
  G vector (1/distance) = 0.26364888
  grid = 15 15 24
  stencil order = 5
  estimated absolute RMS force accuracy = 0.026549759
  estimated relative force accuracy = 7.9953811e-05
  3d grid and FFT values/proc = 8228 2700
Step Temp E_pair E_mol TotEng Press
50000    290.62515   -38656.219     59.74519   -38172.853   -359.43505
Averages over the last 251 of 501 rows, steps 300000 to 550000:
Temp E_pair E_mol TotEng Press
301.116 -38667.5 66.7978 -38161.8 -389.949
Loop time of 226.261 on 2 procs for 500000 steps with 490 atoms

unfix myat1
next cpt
jump SELF loop
variable zdes equal -20+0.5*(2-1)
fix mytth2 topull spring tether 0.5 0 0 -19.5 0
run 50000
PPPM initialization ...
  G vector (1/distance) = 0.26364888
  grid = 15 15 24
  stencil order = 5
  estimated absolute RMS force accuracy = 0.026549759
  estimated relative force accuracy = 7.9953811e-05
  3d grid and FFT values/proc = 8228 2700
Step Temp E_pair E_mol TotEng Press
550000    318.16081   -38691.921    68.598336   -38159.566   -406.00669
Averages over the last 26 of 51 rows, steps 575000 to 600000:
Temp E_pair E_mol TotEng Press
303.091 -38661.5 66.8424 -38152.9 -399.629
Loop time of 22.8 on 2 procs for 50000 steps with 490 atoms

fix myat1 all ave/time 10 200 2000 v_zave v_zdes file position.2.dat
run 500000
PPPM initialization ...
  G vector (1/distance) = 0.26364888
  grid = 15 15 24
  stencil order = 5
  estimated absolute RMS force accuracy = 0.026549759
  estimated relative force accuracy = 7.9953811e-05
  3d grid and FFT values/proc = 8228 2700
Step Temp E_pair E_mol TotEng Press
600000    301.75899    -38681.31    67.540262   -38173.921   -538.58969
Averages over the last 251 of 501 rows, steps 850000 to 1100000:
Temp E_pair E_mol TotEng Press
300.327 -38668.4 66.6708 -38164 -397.117
Loop time of 230.74 on 2 procs for 500000 steps with 490 atoms

unfix myat1
next cpt
jump SELF loop
variable zdes equal -20+0.5*(3-1)
fix mytth2 topull spring tether 0.5 0 0 -19 0
run 50000
PPPM initialization ...
  G vector (1/distance) = 0.26364888
  grid = 15 15 24
  stencil order = 5
  estimated absolute RMS force accuracy = 0.026549759
  estimated relative force accuracy = 7.9953811e-05
  3d grid and FFT values/proc = 8228 2700
Step Temp E_pair E_mol TotEng Press
1100000    297.65099   -38675.303    50.554569   -38190.887   -658.68425
Averages over the last 26 of 51 rows, steps 1125000 to 1150000:
Temp E_pair E_mol TotEng Press
295.953 -38668.2 64.9609 -38171.8 -341.837
Loop time of 22.7766 on 2 procs for 50000 steps with 490 atoms

fix myat1 all ave/time 10 200 2000 v_zave v_zdes file position.3.dat
run 500000
PPPM initialization ...
  G vector (1/distance) = 0.26364888
  grid = 15 15 24
  stencil order = 5
  estimated absolute RMS force accuracy = 0.026549759
  estimated relative force accuracy = 7.9953811e-05
  3d grid and FFT values/proc = 8228 2700
Step Temp E_pair E_mol TotEng Press
1150000    301.70674   -38629.631    62.370715   -38127.488   -211.18305
Averages over the last 251 of 501 rows, steps 1400000 to 1650000:
Temp E_pair E_mol TotEng Press
300.609 -38668.1 67.1354 -38162.8 -358.828
Loop time of 230.899 on 2 procs for 500000 steps with 490 atoms

unfix myat1
next cpt
jump SELF loop
variable zdes equal -20+0.5*(4-1)
fix mytth2 topull spring tether 0.5 0 0 -18.5 0
run 50000
PPPM initialization ...
  G vector (1/distance) = 0.26364888
  grid = 15 15 24
  stencil order = 5
  estimated absolute RMS force accuracy = 0.026549759
  estimated relative force accuracy = 7.9953811e-05
  3d grid and FFT values/proc = 8228 2700
Step Temp E_pair E_mol TotEng Press
1650000    303.45144   -38652.168    49.009337   -38160.843     20.97721
Averages over the last 26 of 51 rows, steps 1675000 to 1700000:
Temp E_pair E_mol TotEng Press
301.986 -38669.5 65.9331 -38163.4 -434.658
Loop time of 22.9789 on 2 procs for 50000 steps with 490 atoms

fix myat1 all ave/time 10 200 2000 v_zave v_zdes file position.4.dat
run 500000
PPPM initialization ...
  G vector (1/distance) = 0.26364888
  grid = 15 15 24
  stencil order = 5
  estimated absolute RMS force accuracy = 0.026549759
  estimated relative force accuracy = 7.9953811e-05
  3d grid and FFT values/proc = 8228 2700
Step Temp E_pair E_mol TotEng Press
1700000    287.56231   -38667.785    52.107619   -38196.522    312.31392
Averages over the last 251 of 501 rows, steps 1950000 to 2200000:
Temp E_pair E_mol TotEng Press
299.973 -38667.3 66.4636 -38163.6 -404.883
Loop time of 234.778 on 2 procs for 500000 steps with 490 atoms

unfix myat1
next cpt
jump SELF loop
variable zdes equal -20+0.5*(5-1)
fix mytth2 topull spring tether 0.5 0 0 -18 0
run 50000
PPPM initialization ...
  G vector (1/distance) = 0.26364888
  grid = 15 15 24
  stencil order = 5
  estimated absolute RMS force accuracy = 0.026549759
  estimated relative force accuracy = 7.9953811e-05
  3d grid and FFT values/proc = 8228 2700
Step Temp E_pair E_mol TotEng Press
2200000    302.50773   -38670.173    57.784496   -38171.449   -13.613551
Averages over the last 26 of 51 rows, steps 2225000 to 2250000:
Temp E_pair E_mol TotEng Press
300.097 -38669.2 69.1934 -38162.6 -435.992
Loop time of 23.8982 on 2 procs for 50000 steps with 490 atoms

fix myat1 all ave/time 10 200 2000 v_zave v_zdes file position.5.dat
run 500000
PPPM initialization ...
  G vector (1/distance) = 0.26364888
  grid = 15 15 24
  stencil order = 5
  estimated absolute RMS force accuracy = 0.026549759
  estimated relative force accuracy = 7.9953811e-05
  3d grid and FFT values/proc = 8228 2700
Step Temp E_pair E_mol TotEng Press
2250000    294.32665   -38666.737    79.441163    -38158.28   -929.80069
Averages over the last 251 of 501 rows, steps 2500000 to 2750000:
Temp E_pair E_mol TotEng Press
299.42 -38665 66.8307 -38161.7 -415.427
Loop time of 234.262 on 2 procs for 500000 steps with 490 atoms

unfix myat1
next cpt
jump SELF loop
variable zdes equal -20+0.5*(6-1)
fix mytth2 topull spring tether 0.5 0 0 -17.5 0
run 50000
PPPM initialization ...
  G vector (1/distance) = 0.26364888
  grid = 15 15 24
  stencil order = 5
  estimated absolute RMS force accuracy = 0.026549759
  estimated relative force accuracy = 7.9953811e-05
  3d grid and FFT values/proc = 8228 2700
Step Temp E_pair E_mol TotEng Press
2750000    289.64712   -38647.307    56.565772   -38168.547   -151.15812
Averages over the last 26 of 51 rows, steps 2775000 to 2800000:
Temp E_pair E_mol TotEng Press
303.848 -38668.1 67.2752 -38157.9 -302.85
Loop time of 23.3767 on 2 procs for 50000 steps with 490 atoms

fix myat1 all ave/time 10 200 2000 v_zave v_zdes file position.6.dat
run 500000
PPPM initialization ...
  G vector (1/distance) = 0.26364888
  grid = 15 15 24
  stencil order = 5
  estimated absolute RMS force accuracy = 0.026549759
  estimated relative force accuracy = 7.9953811e-05
  3d grid and FFT values/proc = 8228 2700
Step Temp E_pair E_mol TotEng Press
2800000    286.50379   -38680.822    65.718898   -38197.491   -169.27442
Averages over the last 251 of 501 rows, steps 3050000 to 3300000:
Temp E_pair E_mol TotEng Press
299.933 -38662.8 66.8308 -38158.7 -374.979
Loop time of 234.257 on 2 procs for 500000 steps with 490 atoms

unfix myat1
next cpt
jump SELF loop
variable zdes equal -20+0.5*(7-1)
fix mytth2 topull spring tether 0.5 0 0 -17 0
run 50000
PPPM initialization ...
  G vector (1/distance) = 0.26364888
  grid = 15 15 24
  stencil order = 5
  estimated absolute RMS force accuracy = 0.026549759
  estimated relative force accuracy = 7.9953811e-05
  3d grid and FFT values/proc = 8228 2700
Step Temp E_pair E_mol TotEng Press
3300000    312.74577   -38641.972     70.24615   -38115.863   -154.80979
Averages over the last 26 of 51 rows, steps 3325000 to 3350000:
Temp E_pair E_mol TotEng Press
301.24 -38669.1 65.6749 -38164.4 -397.908
Loop time of 23.1617 on 2 procs for 50000 steps with 490 atoms

fix myat1 all ave/time 10 200 2000 v_zave v_zdes file position.7.dat
run 500000
PPPM initialization ...
  G vector (1/distance) = 0.26364888
  grid = 15 15 24
  stencil order = 5
  estimated absolute RMS force accuracy = 0.026549759
  estimated relative force accuracy = 7.9953811e-05
  3d grid and FFT values/proc = 8228 2700
Step Temp E_pair E_mol TotEng Press
3350000    305.57446   -38669.592    62.671407    -38161.51   -769.67301
Averages over the last 251 of 501 rows, steps 3600000 to 3850000:
Temp E_pair E_mol TotEng Press
299.969 -38661.2 67.4957 -38156.5 -379.707
Loop time of 231.821 on 2 procs for 500000 steps with 490 atoms

unfix myat1
next cpt
jump SELF loop
variable zdes equal -20+0.5*(8-1)
fix mytth2 topull spring tether 0.5 0 0 -16.5 0
run 50000
PPPM initialization ...
  G vector (1/distance) = 0.26364888
  grid = 15 15 24
  stencil order = 5
  estimated absolute RMS force accuracy = 0.026549759
  estimated relative force accuracy = 7.9953811e-05
  3d grid and FFT values/proc = 8228 2700
Step Temp E_pair E_mol TotEng Press
3850000    305.94874   -38648.268    61.380333   -38140.932   -407.18488
Averages over the last 26 of 51 rows, steps 3875000 to 3900000:
Temp E_pair E_mol TotEng Press
297.128 -38666 66.0871 -38166.8 -434.063
Loop time of 23.2733 on 2 procs for 50000 steps with 490 atoms

fix myat1 all ave/time 10 200 2000 v_zave v_zdes file position.8.dat
run 500000
PPPM initialization ...
  G vector (1/distance) = 0.26364888
  grid = 15 15 24
  stencil order = 5
  estimated absolute RMS force accuracy = 0.026549759
  estimated relative force accuracy = 7.9953811e-05
  3d grid and FFT values/proc = 8228 2700
Step Temp E_pair E_mol TotEng Press
3900000    306.67212   -38634.686     71.35019   -38116.325   -546.43091
Averages over the last 251 of 501 rows, steps 4150000 to 4400000:
Temp E_pair E_mol TotEng Press
300.185 -38664.6 66.9345 -38160.1 -408.745
Loop time of 235.086 on 2 procs for 500000 steps with 490 atoms

unfix myat1
next cpt
jump SELF loop
variable zdes equal -20+0.5*(9-1)
fix mytth2 topull spring tether 0.5 0 0 -16 0
run 50000
PPPM initialization ...
  G vector (1/distance) = 0.26364888
  grid = 15 15 24
  stencil order = 5
  estimated absolute RMS force accuracy = 0.026549759
  estimated relative force accuracy = 7.9953811e-05
  3d grid and FFT values/proc = 8228 2700
Step Temp E_pair E_mol TotEng Press
4400000    294.93259   -38682.325    57.668981   -38194.758    -355.4392
Averages over the last 26 of 51 rows, steps 4425000 to 4450000:
Temp E_pair E_mol TotEng Press
302.778 -38662.4 69.3955 -38151.6 -381.09
Loop time of 23.4543 on 2 procs for 50000 steps with 490 atoms

fix myat1 all ave/time 10 200 2000 v_zave v_zdes file position.9.dat
run 500000
PPPM initialization ...
  G vector (1/distance) = 0.26364888
  grid = 15 15 24
  stencil order = 5
  estimated absolute RMS force accuracy = 0.026549759
  estimated relative force accuracy = 7.9953811e-05
  3d grid and FFT values/proc = 8228 2700
Step Temp E_pair E_mol TotEng Press
4450000    315.84247   -38676.588    56.548384   -38159.663   -266.10281
Averages over the last 251 of 501 rows, steps 4700000 to 4950000:
Temp E_pair E_mol TotEng Press
301.283 -38663.5 67.6158 -38156.8 -393.302
Loop time of 233.29 on 2 procs for 500000 steps with 490 atoms

unfix myat1
next cpt
jump SELF loop
variable zdes equal -20+0.5*(10-1)
fix mytth2 topull spring tether 0.5 0 0 -15.5 0
run 50000
PPPM initialization ...
  G vector (1/distance) = 0.26364888
  grid = 15 15 24
  stencil order = 5
  estimated absolute RMS force accuracy = 0.026549759
  estimated relative force accuracy = 7.9953811e-05
  3d grid and FFT values/proc = 8228 2700
Step Temp E_pair E_mol TotEng Press
4950000    310.38684   -38691.235     76.20141   -38162.609    236.98046
Averages over the last 26 of 51 rows, steps 4975000 to 5000000:
Temp E_pair E_mol TotEng Press
301.746 -38667.9 66.4106 -38161.7 -372.707
Loop time of 23.3156 on 2 procs for 50000 steps with 490 atoms

fix myat1 all ave/time 10 200 2000 v_zave v_zdes file position.10.dat
run 500000
PPPM initialization ...
  G vector (1/distance) = 0.26364888
  grid = 15 15 24
  stencil order = 5
  estimated absolute RMS force accuracy = 0.026549759
  estimated relative force accuracy = 7.9953811e-05
  3d grid and FFT values/proc = 8228 2700
Step Temp E_pair E_mol TotEng Press
5000000    297.25719   -38681.433    70.826671    -38177.32   -55.552099
Averages over the last 251 of 501 rows, steps 5250000 to 5500000:
Temp E_pair E_mol TotEng Press
300.916 -38661.5 66.2776 -38156.6 -343.339
Loop time of 236.513 on 2 procs for 500000 steps with 490 atoms

unfix myat1
next cpt
jump SELF loop
variable zdes equal -20+0.5*(11-1)
fix mytth2 topull spring tether 0.5 0 0 -15 0
run 50000
PPPM initialization ...
  G vector (1/distance) = 0.26364888
  grid = 15 15 24
  stencil order = 5
  estimated absolute RMS force accuracy = 0.026549759
  estimated relative force accuracy = 7.9953811e-05
  3d grid and FFT values/proc = 8228 2700
Step Temp E_pair E_mol TotEng Press
5500000     296.5651   -38663.215    68.876157   -38162.061   -191.51357
Averages over the last 26 of 51 rows, steps 5525000 to 5550000:
Temp E_pair E_mol TotEng Press
298.504 -38661.8 68.0958 -38158.6 -377.747
Loop time of 23.3417 on 2 procs for 50000 steps with 490 atoms

fix myat1 all ave/time 10 200 2000 v_zave v_zdes file position.11.dat
run 500000
PPPM initialization ...
  G vector (1/distance) = 0.26364888
  grid = 15 15 24
  stencil order = 5
  estimated absolute RMS force accuracy = 0.026549759
  estimated relative force accuracy = 7.9953811e-05
  3d grid and FFT values/proc = 8228 2700
Step Temp E_pair E_mol TotEng Press
5550000    297.65921   -38665.794    74.383001   -38157.538   -405.20602
Averages over the last 251 of 501 rows, steps 5800000 to 6050000:
Temp E_pair E_mol TotEng Press
301.591 -38661.6 66.6791 -38155.4 -388.589
Loop time of 233.369 on 2 procs for 500000 steps with 490 atoms

unfix myat1
next cpt
jump SELF loop
variable zdes equal -20+0.5*(12-1)
fix mytth2 topull spring tether 0.5 0 0 -14.5 0
run 50000
PPPM initialization ...
  G vector (1/distance) = 0.26364888
  grid = 15 15 24
  stencil order = 5
  estimated absolute RMS force accuracy = 0.026549759
  estimated relative force accuracy = 7.9953811e-05
  3d grid and FFT values/proc = 8228 2700
Step Temp E_pair E_mol TotEng Press
6050000    291.63432   -38654.093    61.788891   -38167.213   -651.97401
Averages over the last 26 of 51 rows, steps 6075000 to 6100000:
Temp E_pair E_mol TotEng Press
303.517 -38659.5 65.8607 -38151.2 -319.152
Loop time of 23.6735 on 2 procs for 50000 steps with 490 atoms

fix myat1 all ave/time 10 200 2000 v_zave v_zdes file position.12.dat
run 500000
PPPM initialization ...
  G vector (1/distance) = 0.26364888
  grid = 15 15 24
  stencil order = 5
  estimated absolute RMS force accuracy = 0.026549759
  estimated relative force accuracy = 7.9953811e-05
  3d grid and FFT values/proc = 8228 2700
Step Temp E_pair E_mol TotEng Press
6100000    307.89048   -38674.454    66.454655   -38159.213   -775.00133
Averages over the last 251 of 501 rows, steps 6350000 to 6600000:
Temp E_pair E_mol TotEng Press
302.121 -38652.6 66.9645 -38145.2 -364.776
Loop time of 233.964 on 2 procs for 500000 steps with 490 atoms

unfix myat1
next cpt
jump SELF loop
variable zdes equal -20+0.5*(13-1)
fix mytth2 topull spring tether 0.5 0 0 -14 0
run 50000
PPPM initialization ...
  G vector (1/distance) = 0.26364888
  grid = 15 15 24
  stencil order = 5
  estimated absolute RMS force accuracy = 0.026549759
  estimated relative force accuracy = 7.9953811e-05
  3d grid and FFT values/proc = 8228 2700
Step Temp E_pair E_mol TotEng Press
6600000    312.48648   -38661.489    76.046785   -38129.957   -423.12461
Averages over the last 26 of 51 rows, steps 6625000 to 6650000:
Temp E_pair E_mol TotEng Press
298.201 -38652.4 66.8673 -38150.9 -348.561
Loop time of 23.1747 on 2 procs for 50000 steps with 490 atoms

fix myat1 all ave/time 10 200 2000 v_zave v_zdes file position.13.dat
run 500000
PPPM initialization ...
  G vector (1/distance) = 0.26364888
  grid = 15 15 24
  stencil order = 5
  estimated absolute RMS force accuracy = 0.026549759
  estimated relative force accuracy = 7.9953811e-05
  3d grid and FFT values/proc = 8228 2700
Step Temp E_pair E_mol TotEng Press
6650000    292.82426   -38641.734    73.046222   -38141.863   -3.3495747
Averages over the last 251 of 501 rows, steps 6900000 to 7150000:
Temp E_pair E_mol TotEng Press
300.063 -38654.3 66.4513 -38150.4 -403.145
Loop time of 233.685 on 2 procs for 500000 steps with 490 atoms

unfix myat1
next cpt
jump SELF loop
variable zdes equal -20+0.5*(14-1)
fix mytth2 topull spring tether 0.5 0 0 -13.5 0
run 50000
PPPM initialization ...
  G vector (1/distance) = 0.26364888
  grid = 15 15 24
  stencil order = 5
  estimated absolute RMS force accuracy = 0.026549759
  estimated relative force accuracy = 7.9953811e-05
  3d grid and FFT values/proc = 8228 2700
Step Temp E_pair E_mol TotEng Press
7150000    304.85584   -38670.717    76.713957   -38149.641   -784.25746
Averages over the last 26 of 51 rows, steps 7175000 to 7200000:
Temp E_pair E_mol TotEng Press
300.375 -38670.6 65.344 -38167.4 -293.084
Loop time of 23.2259 on 2 procs for 50000 steps with 490 atoms

fix myat1 all ave/time 10 200 2000 v_zave v_zdes file position.14.dat
run 500000
PPPM initialization ...
  G vector (1/distance) = 0.26364888
  grid = 15 15 24
  stencil order = 5
  estimated absolute RMS force accuracy = 0.026549759
  estimated relative force accuracy = 7.9953811e-05
  3d grid and FFT values/proc = 8228 2700
Step Temp E_pair E_mol TotEng Press
7200000    302.15487   -38671.254    69.761358   -38161.067   -86.368563
Averages over the last 251 of 501 rows, steps 7450000 to 7700000:
Temp E_pair E_mol TotEng Press
301.031 -38660.9 66.6985 -38155.4 -393.335
Loop time of 234.147 on 2 procs for 500000 steps with 490 atoms

unfix myat1
next cpt
jump SELF loop
variable zdes equal -20+0.5*(15-1)
fix mytth2 topull spring tether 0.5 0 0 -13 0
run 50000
PPPM initialization ...
  G vector (1/distance) = 0.26364888
  grid = 15 15 24
  stencil order = 5
  estimated absolute RMS force accuracy = 0.026549759
  estimated relative force accuracy = 7.9953811e-05
  3d grid and FFT values/proc = 8228 2700
Step Temp E_pair E_mol TotEng Press
7700000    309.58213   -38653.722    66.626787   -38135.844    13.543373
Averages over the last 26 of 51 rows, steps 7725000 to 7750000:
Temp E_pair E_mol TotEng Press
303.418 -38651.4 66.3589 -38142.7 -386.505
Loop time of 23.9402 on 2 procs for 50000 steps with 490 atoms

fix myat1 all ave/time 10 200 2000 v_zave v_zdes file position.15.dat
run 500000
PPPM initialization ...
  G vector (1/distance) = 0.26364888
  grid = 15 15 24
  stencil order = 5
  estimated absolute RMS force accuracy = 0.026549759
  estimated relative force accuracy = 7.9953811e-05
  3d grid and FFT values/proc = 8228 2700
Step Temp E_pair E_mol TotEng Press
7750000    297.45194    -38645.46    53.865944   -38158.024   -292.88873
Averages over the last 251 of 501 rows, steps 8000000 to 8250000:
Temp E_pair E_mol TotEng Press
299.952 -38658.7 66.9972 -38154.5 -398.821
Loop time of 231.139 on 2 procs for 500000 steps with 490 atoms

unfix myat1
next cpt
jump SELF loop
variable zdes equal -20+0.5*(16-1)
fix mytth2 topull spring tether 0.5 0 0 -12.5 0
run 50000
PPPM initialization ...
  G vector (1/distance) = 0.26364888
  grid = 15 15 24
  stencil order = 5
  estimated absolute RMS force accuracy = 0.026549759
  estimated relative force accuracy = 7.9953811e-05
  3d grid and FFT values/proc = 8228 2700
Step Temp E_pair E_mol TotEng Press
8250000    293.34046   -38650.393    68.493458   -38154.322    -724.8767
Averages over the last 26 of 51 rows, steps 8275000 to 8300000:
Temp E_pair E_mol TotEng Press
300.468 -38657.2 65.4522 -38153.8 -435.883
Loop time of 23.0327 on 2 procs for 50000 steps with 490 atoms

fix myat1 all ave/time 10 200 2000 v_zave v_zdes file position.16.dat
run 500000
PPPM initialization ...
  G vector (1/distance) = 0.26364888
  grid = 15 15 24
  stencil order = 5
  estimated absolute RMS force accuracy = 0.026549759
  estimated relative force accuracy = 7.9953811e-05
  3d grid and FFT values/proc = 8228 2700
Step Temp E_pair E_mol TotEng Press
8300000      306.957   -38640.301    76.980986   -38115.894   -1067.4441
Averages over the last 251 of 501 rows, steps 8550000 to 8800000:
Temp E_pair E_mol TotEng Press
300.398 -38652.5 67.0075 -38147.6 -390.237
Loop time of 238.472 on 2 procs for 500000 steps with 490 atoms

unfix myat1
next cpt
jump SELF loop
variable zdes equal -20+0.5*(17-1)
fix mytth2 topull spring tether 0.5 0 0 -12 0
run 50000
PPPM initialization ...
  G vector (1/distance) = 0.26364888
  grid = 15 15 24
  stencil order = 5
  estimated absolute RMS force accuracy = 0.026549759
  estimated relative force accuracy = 7.9953811e-05
  3d grid and FFT values/proc = 8228 2700
Step Temp E_pair E_mol TotEng Press
8800000    308.21982   -38627.433    63.546623    -38114.62   -495.97615
Averages over the last 26 of 51 rows, steps 8825000 to 8850000:
Temp E_pair E_mol TotEng Press
301.288 -38648 65.7052 -38143.1 -341.293
Loop time of 24.3693 on 2 procs for 50000 steps with 490 atoms

fix myat1 all ave/time 10 200 2000 v_zave v_zdes file position.17.dat
run 500000
PPPM initialization ...
  G vector (1/distance) = 0.26364888
  grid = 15 15 24
  stencil order = 5
  estimated absolute RMS force accuracy = 0.026549759
  estimated relative force accuracy = 7.9953811e-05
  3d grid and FFT values/proc = 8228 2700
Step Temp E_pair E_mol TotEng Press
8850000    291.11786   -38653.884    56.611415   -38172.935   -606.29127
Averages over the last 251 of 501 rows, steps 9100000 to 9350000:
Temp E_pair E_mol TotEng Press
301.352 -38653.3 66.1696 -38147.9 -396.085
Loop time of 235.822 on 2 procs for 500000 steps with 490 atoms

unfix myat1
next cpt
jump SELF loop
variable zdes equal -20+0.5*(18-1)
fix mytth2 topull spring tether 0.5 0 0 -11.5 0
run 50000
PPPM initialization ...
  G vector (1/distance) = 0.26364888
  grid = 15 15 24
  stencil order = 5
  estimated absolute RMS force accuracy = 0.026549759
  estimated relative force accuracy = 7.9953811e-05
  3d grid and FFT values/proc = 8228 2700
Step Temp E_pair E_mol TotEng Press
9350000    312.72841   -38649.276    72.291111   -38121.147   -150.42943
Averages over the last 26 of 51 rows, steps 9375000 to 9400000:
Temp E_pair E_mol TotEng Press
301.307 -38656.4 64.7835 -38152.4 -419.533
Loop time of 23.1855 on 2 procs for 50000 steps with 490 atoms

fix myat1 all ave/time 10 200 2000 v_zave v_zdes file position.18.dat
run 500000
PPPM initialization ...
  G vector (1/distance) = 0.26364888
  grid = 15 15 24
  stencil order = 5
  estimated absolute RMS force accuracy = 0.026549759
  estimated relative force accuracy = 7.9953811e-05
  3d grid and FFT values/proc = 8228 2700
Step Temp E_pair E_mol TotEng Press
9400000    310.37957   -38671.398    61.285252   -38157.698    -1005.766
Averages over the last 251 of 501 rows, steps 9650000 to 9900000:
Temp E_pair E_mol TotEng Press
300.397 -38655.6 66.509 -38151.2 -421.925
Loop time of 233.075 on 2 procs for 500000 steps with 490 atoms

unfix myat1
next cpt
jump SELF loop
variable zdes equal -20+0.5*(19-1)
fix mytth2 topull spring tether 0.5 0 0 -11 0
run 50000
PPPM initialization ...
  G vector (1/distance) = 0.26364888
  grid = 15 15 24
  stencil order = 5
  estimated absolute RMS force accuracy = 0.026549759
  estimated relative force accuracy = 7.9953811e-05
  3d grid and FFT values/proc = 8228 2700
Step Temp E_pair E_mol TotEng Press
9900000    314.20982   -38669.039    56.507099   -38154.535   -259.91123
Averages over the last 26 of 51 rows, steps 9925000 to 9950000:
Temp E_pair E_mol TotEng Press
298.098 -38650.5 66.2602 -38149.7 -405.481
Loop time of 23.6216 on 2 procs for 50000 steps with 490 atoms

fix myat1 all ave/time 10 200 2000 v_zave v_zdes file position.19.dat
run 500000
PPPM initialization ...
  G vector (1/distance) = 0.26364888
  grid = 15 15 24
  stencil order = 5
  estimated absolute RMS force accuracy = 0.026549759
  estimated relative force accuracy = 7.9953811e-05
  3d grid and FFT values/proc = 8228 2700
Step Temp E_pair E_mol TotEng Press
9950000    301.85639   -38647.968    65.289015   -38142.688   -561.43828
Averages over the last 251 of 501 rows, steps 10200000 to 10450000:
Temp E_pair E_mol TotEng Press
301.353 -38656.1 67.6715 -38149.1 -373.974
Loop time of 247.767 on 2 procs for 500000 steps with 490 atoms

unfix myat1
next cpt
jump SELF loop
variable zdes equal -20+0.5*(20-1)
fix mytth2 topull spring tether 0.5 0 0 -10.5 0
run 50000
PPPM initialization ...
  G vector (1/distance) = 0.26364888
  grid = 15 15 24
  stencil order = 5
  estimated absolute RMS force accuracy = 0.026549759
  estimated relative force accuracy = 7.9953811e-05
  3d grid and FFT values/proc = 8228 2700
Step Temp E_pair E_mol TotEng Press
10450000    283.48274     -38676.8    60.014462   -38203.577   -700.32569
Averages over the last 26 of 51 rows, steps 10475000 to 10500000:
Temp E_pair E_mol TotEng Press
298.636 -38656.1 66.7292 -38154.1 -361.905
Loop time of 25.2361 on 2 procs for 50000 steps with 490 atoms

fix myat1 all ave/time 10 200 2000 v_zave v_zdes file position.20.dat
run 500000
PPPM initialization ...
  G vector (1/distance) = 0.26364888
  grid = 15 15 24
  stencil order = 5
  estimated absolute RMS force accuracy = 0.026549759
  estimated relative force accuracy = 7.9953811e-05
  3d grid and FFT values/proc = 8228 2700
Step Temp E_pair E_mol TotEng Press
10500000    297.33608   -38642.849    53.373616   -38156.073   -406.04206
Averages over the last 251 of 501 rows, steps 10750000 to 11000000:
Temp E_pair E_mol TotEng Press
300.916 -38654 66.8189 -38148.6 -414.639
Loop time of 237.179 on 2 procs for 500000 steps with 490 atoms

unfix myat1
next cpt
jump SELF loop
variable zdes equal -20+0.5*(21-1)
fix mytth2 topull spring tether 0.5 0 0 -10 0
run 50000
PPPM initialization ...
  G vector (1/distance) = 0.26364888
  grid = 15 15 24
  stencil order = 5
  estimated absolute RMS force accuracy = 0.026549759
  estimated relative force accuracy = 7.9953811e-05
  3d grid and FFT values/proc = 8228 2700
Loop time of 22.8938 on 2 procs for 50000 steps with 490 atoms

fix myat1 all ave/time 10 200 2000 v_zave v_zdes file position.21.dat
run 500000
PPPM initialization ...
  G vector (1/distance) = 0.26364888
  grid = 15 15 24
  stencil order = 5
  estimated absolute RMS force accuracy = 0.026549759
  estimated relative force accuracy = 7.9953811e-05
  3d grid and FFT values/proc = 8228 2700
Loop time of 233.412 on 2 procs for 500000 steps with 490 atoms

unfix myat1
next cpt
jump SELF loop
variable zdes equal -20+0.5*(22-1)
fix mytth2 topull spring tether 0.5 0 0 -9.5 0
run 50000
PPPM initialization ...
  G vector (1/distance) = 0.26364888
  grid = 15 15 24
  stencil order = 5
  estimated absolute RMS force accuracy = 0.026549759
  estimated relative force accuracy = 7.9953811e-05
  3d grid and FFT values/proc = 8228 2700
Loop time of 23.1219 on 2 procs for 50000 steps with 490 atoms

fix myat1 all ave/time 10 200 2000 v_zave v_zdes file position.22.dat
run 500000
PPPM initialization ...
  G vector (1/distance) = 0.26364888
  grid = 15 15 24
  stencil order = 5
  estimated absolute RMS force accuracy = 0.026549759
  estimated relative force accuracy = 7.9953811e-05
  3d grid and FFT values/proc = 8228 2700
Loop time of 231.996 on 2 procs for 500000 steps with 490 atoms

unfix myat1
next cpt
jump SELF loop
variable zdes equal -20+0.5*(23-1)
fix mytth2 topull spring tether 0.5 0 0 -9 0
run 50000
PPPM initialization ...
  G vector (1/distance) = 0.26364888
  grid = 15 15 24
  stencil order = 5
  estimated absolute RMS force accuracy = 0.026549759
  estimated relative force accuracy = 7.9953811e-05
  3d grid and FFT values/proc = 8228 2700
Loop time of 23.2641 on 2 procs for 50000 steps with 490 atoms

fix myat1 all ave/time 10 200 2000 v_zave v_zdes file position.23.dat
run 500000
PPPM initialization ...
  G vector (1/distance) = 0.26364888
  grid = 15 15 24
  stencil order = 5
  estimated absolute RMS force accuracy = 0.026549759
  estimated relative force accuracy = 7.9953811e-05
  3d grid and FFT values/proc = 8228 2700
Loop time of 230.974 on 2 procs for 500000 steps with 490 atoms

unfix myat1
next cpt
jump SELF loop
variable zdes equal -20+0.5*(24-1)
fix mytth2 topull spring tether 0.5 0 0 -8.5 0
run 50000
PPPM initialization ...
  G vector (1/distance) = 0.26364888
  grid = 15 15 24
  stencil order = 5
  estimated absolute RMS force accuracy = 0.026549759
  estimated relative force accuracy = 7.9953811e-05
  3d grid and FFT values/proc = 8228 2700
Loop time of 23.4144 on 2 procs for 50000 steps with 490 atoms

fix myat1 all ave/time 10 200 2000 v_zave v_zdes file position.24.dat
run 500000
PPPM initialization ...
  G vector (1/distance) = 0.26364888
  grid = 15 15 24
  stencil order = 5
  estimated absolute RMS force accuracy = 0.026549759
  estimated relative force accuracy = 7.9953811e-05
  3d grid and FFT values/proc = 8228 2700
Loop time of 232.105 on 2 procs for 500000 steps with 490 atoms

unfix myat1
next cpt
jump SELF loop
