LAMMPS (3 Nov 2022)
# LAMMPS input file

variable speed equal 1.0 # K/ps
variable Pi equal 100 # bars
variable Pf equal 1 # bars
variable Tinitl equal 6000 # K
variable Tinter equal 3600 # K
variable Tfinal equal 300 # K
variable durat1 equal floor((6000-3600)/1)*1000
variable durat2 equal floor((3600-300)/1)*1000

units metal
boundary p p p
atom_style full

neighbor 1.0 bin
neigh_modify delay 1

read_data data.SiO
Reading data file ...
  orthogonal box = (0 0 0) to (5.1463944 5.1463944 5.1463944)
  reading atoms ...
  9 atoms
Finding 1-2 1-3 1-4 neighbors ...
     0 = max # of 1-2 neighbors
     0 = max # of 1-3 neighbors
     0 = max # of 1-4 neighbors
     1 = max # of special neighbors
replicate 4 4 4
Replication is creating a 4x4x4 = 64 times larger system...
  orthogonal box = (0 0 0) to (20.585578 20.585578 20.585578)
  576 atoms
Finding 1-2 1-3 1-4 neighbors ...
     0 = max # of 1-2 neighbors
     0 = max # of 1-3 neighbors
     0 = max # of 1-4 neighbors
     1 = max # of special neighbors
  replicate CPU = 0.002 seconds

pair_style vashishta
pair_coeff * * SiO.1990.vashishta Si O
Reading vashishta potential file SiO.1990.vashishta with DATE: 2015-10-14

velocity all create 6000 4928459 rot yes mom yes dist gaussian
fix mynvt all nvt temp 6000 6000 0.1

dump dmp all atom 10000 dump.lammpstrj

timestep 0.001
thermo 1000
run 20000
Step          Temp          E_pair         E_mol          TotEng         Press
0   6000          -2060.8001      0             -1614.8526      779045.54
Averages over the last 11 of 21 rows, steps 10000 to 20000:
Temp E_pair E_mol TotEng Press
5996.4 -4438.96 0 -3993.28 29951.7
Loop time of 19.4808 on 8 procs for 20000 steps with 576 atoms

unfix mynvt

fix mynpt all npt temp 6000 3600 0.1 iso 100 1 1

run 2400000
Step          Temp          E_pair         E_mol          TotEng         Press          Volume
20000   6187.3861     -4466.295       0             -4006.4201      35322.457      8723.4681
Averages over the last 1201 of 2401 rows, steps 1220000 to 2420000:
Temp E_pair E_mol TotEng Press Volume
4196.19 -4676.53 0 -4364.65 -368.888 9061.51
Loop time of 2014.45 on 8 procs for 2400000 steps with 576 atoms

fix mynpt all npt temp 3600 300 0.1 aniso 100 1 1

run 3300000
Step          Temp          E_pair         E_mol          TotEng         Press          Volume
2420000   3797.7733     -4778.1372      0             -4495.8692     -12350.6        8599.043
Averages over the last 1651 of 3301 rows, steps 4070000 to 5720000:
Temp E_pair E_mol TotEng Press Volume
1126.5 -5121.44 0 -5037.72 65.29 7605.97
Loop time of 3227.15 on 8 procs for 3300000 steps with 576 atoms

write_data silica.data
System init for write_data ...
write_dump all atom amorphous_silica.lammpstrj
