LAMMPS (22 Dec 2022)
# SiO amorphous silica deformed with reaxff potential

units real
atom_style full

read_data ../RelaxSilica/silica-relaxed.data
Reading data file ...
  orthogonal box = (-3.5654779 2.3141414 1.4193121) to (24.151056 18.271436 19.166266)
  reading atoms ...
  576 atoms
  reading velocities ...
  576 velocities
Finding 1-2 1-3 1-4 neighbors ...
     0 = max # of 1-2 neighbors
     0 = max # of 1-3 neighbors
     0 = max # of 1-4 neighbors
     1 = max # of special neighbors

mass 1 28.0855 # Si
mass 2 15.999 # O

pair_style reaxff NULL safezone 3.0 mincap 150
pair_coeff * * ../RelaxSilica/reaxCHOFe.ff Si O
fix myqeq all qeq/reaxff 1 0.0 10.0 1.0e-6 reaxff maxiter 400

neighbor 0.5 bin
neigh_modify every 5 delay 0 check yes

group grpSi type 1
192 atoms in group grpSi
group grpO type 2
384 atoms in group grpO
variable totqSi equal charge(grpSi)
variable totqO equal charge(grpO)
variable nSi equal count(grpSi)
variable nO equal count(grpO)
variable qSi equal v_totqSi/192
variable qO equal v_totqO/384

dump dmp all custom 100 dump-deform.lammpstrj id type q x y z
thermo 100
thermo_style custom step temp etotal press vol v_qSi v_qO

fix mydef all deform 1 x erate 5e-5
fix mynvt all nvt temp 300.0 300.0 100
timestep 0.5

thermo 100
run 25000

CITE-CITE-CITE-CITE-CITE-CITE-CITE-CITE-CITE-CITE-CITE-CITE-CITE

Your simulation uses code contributions which should be cited:

- pair reaxff command: doi:10.1016/j.parco.2011.08.005

@Article{Aktulga12,
 author = {H. M. Aktulga and J. C. Fogarty and S. A. Pandit and A. Y. Grama},
 title = {Parallel Reactive Molecular Dynamics: {N}umerical Methods and Algorithmic Techniques},
 journal = {Parallel Computing},
 year =    2012,
 volume =  38,
 number =  {4--5},
 pages =   {245--259}
}

- fix qeq/reaxff command: doi:10.1016/j.parco.2011.08.005

@Article{Aktulga12,
 author = {H. M. Aktulga and J. C. Fogarty and S. A. Pandit and A. Y. Grama},
 title = {Parallel Reactive Molecular Dynamics: {N}umerical Methods and Algorithmic Techniques},
 journal = {Parallel Computing},
 year =    2012,
 volume =  38,
 pages =   {245--259}
}

CITE-CITE-CITE-CITE-CITE-CITE-CITE-CITE-CITE-CITE-CITE-CITE-CITE

Step          Temp          TotEng         Press          Volume         v_qSi           v_qO
0   304.65044     -85790.538     -4494.6931      7849.1385      1.8676933     -0.93384667
Averages over the last 126 of 251 rows, steps 12500 to 25000:
Temp TotEng Press Volume v_qSi v_qO
341.794 -82977.8 -37304 11528.4 1.70879 -0.854396
Loop time of 459.901 on 8 procs for 25000 steps with 576 atoms

unfix mydef
undump dmp

#dump dmp all custom 100 dump.lammpstrj id type q x y z

#run 2000

#write_data silica-deformed.data
