LAMMPS (22 Dec 2022)
# SiO amorphous silica relaxed with reaxff potential

units real
atom_style full

read_data silica.data
Reading data file ...
  orthogonal box = (-3.1662119 2.4397298 1.5469185) to (23.75179 18.145848 19.038659)
  reading atoms ...
  576 atoms
  reading velocities ...
  576 velocities
Finding 1-2 1-3 1-4 neighbors ...
     0 = max # of 1-2 neighbors
     0 = max # of 1-3 neighbors
     0 = max # of 1-4 neighbors
     1 = max # of special neighbors

mass 1 28.0855 # Si
mass 2 15.999 # O

pair_style reaxff NULL safezone 3.0 mincap 150
pair_coeff * * reaxCHOFe.ff Si O
fix myqeq all qeq/reaxff 1 0.0 10.0 1.0e-6 reaxff maxiter 400

neighbor 0.5 bin
neigh_modify every 5 delay 0 check yes

group grpSi type 1
192 atoms in group grpSi
group grpO type 2
384 atoms in group grpO
variable totqSi equal charge(grpSi)
variable totqO equal charge(grpO)
variable nSi equal count(grpSi)
variable nO equal count(grpO)
variable qSi equal v_totqSi/192
variable qO equal v_totqO/384

dump dmp all custom 100 dump.lammpstrj id type q x y z
thermo 10
thermo_style custom step temp etotal press vol v_qSi v_qO

velocity all create 300.0 3482028
fix mynpt all npt temp 300.0 300.0 10 aniso 1.0 1.0 100
timestep 0.5

thermo 100
run 2000

CITE-CITE-CITE-CITE-CITE-CITE-CITE-CITE-CITE-CITE-CITE-CITE-CITE

Your simulation uses code contributions which should be cited:

- pair reaxff command: doi:10.1016/j.parco.2011.08.005

@Article{Aktulga12,
 author = {H. M. Aktulga and J. C. Fogarty and S. A. Pandit and A. Y. Grama},
 title = {Parallel Reactive Molecular Dynamics: {N}umerical Methods and Algorithmic Techniques},
 journal = {Parallel Computing},
 year =    2012,
 volume =  38,
 number =  {4--5},
 pages =   {245--259}
}

- fix qeq/reaxff command: doi:10.1016/j.parco.2011.08.005

@Article{Aktulga12,
 author = {H. M. Aktulga and J. C. Fogarty and S. A. Pandit and A. Y. Grama},
 title = {Parallel Reactive Molecular Dynamics: {N}umerical Methods and Algorithmic Techniques},
 journal = {Parallel Computing},
 year =    2012,
 volume =  38,
 pages =   {245--259}
}

CITE-CITE-CITE-CITE-CITE-CITE-CITE-CITE-CITE-CITE-CITE-CITE-CITE

Step          Temp          TotEng         Press          Volume         v_qSi           v_qO
0   300           -82752.034      324297.89      7395.1112      1.8719625     -0.93598127
Averages over the last 11 of 21 rows, steps 1000 to 2000:
Temp TotEng Press Volume v_qSi v_qO
297.172 -85788.1 -2019.16 7823.89 1.86815 -0.934074
Loop time of 43.8199 on 8 procs for 2000 steps with 576 atoms

write_data silica-relaxed.data
System init for write_data ...
